test/data/pti/activsg500.raw
0,    100.00, 33, 0, 0, 60.00       / July 15, 2024 08:47:30; Simulator Version 23; BuildDate 2024_6_10
This is a synthetic power system model that does NOT represent the actual grid. It was developed as part of the US ARPA-E Grid 
Data research project and contains no CEII.
    1,'WINNSBORO 0 ', 138.0000,1,   1,   6,   1,1.02299738, -44.807912, 1.10000, 0.90000, 1.10000, 0.90000
    2,'WINNSBORO 1 ', 138.0000,1,   1,   6,   1,1.02259290, -44.857500, 1.10000, 0.90000, 1.10000, 0.90000
    3,'COLUMBIA 1~3', 138.0000,1,   1,   6,   1,1.02040935, -46.507704, 1.10000, 0.90000, 1.10000, 0.90000
    4,'COLUMBIA 1~4', 138.0000,1,   1,   6,   1,1.01890683, -46.679702, 1.10000, 0.90000, 1.10000, 0.90000
    5,'SMYRNA 0    ', 138.0000,1,   1,   4,   1,1.03311646, -25.811601, 1.10000, 0.90000, 1.10000, 0.90000
    6,'SMYRNA 1    ', 138.0000,1,   1,   4,   1,1.03308463, -25.815603, 1.10000, 0.90000, 1.10000, 0.90000
    7,'EASTOVER 2 0', 345.0000,1,   1,   6,   1,1.03757572, -41.958778, 1.10000, 0.90000, 1.10000, 0.90000
    8,'EASTOVER 2 1', 138.0000,1,   1,   6,   1,1.03414452, -42.999135, 1.10000, 0.90000, 1.10000, 0.90000
    9,'EASTOVER 2 2',  13.8000,2,   1,   6,   1,1.03999996, -41.122691, 1.10000, 0.90000, 1.10000, 0.90000
   10,'CHAPPELLS ~6', 138.0000,1,   1,   5,   1,1.03451931, -44.349204, 1.10000, 0.90000, 1.10000, 0.90000
   11,'CHAPPELLS ~7', 138.0000,1,   1,   5,   1,1.03449428, -44.351984, 1.10000, 0.90000, 1.10000, 0.90000
   12,'PELZER 0    ', 138.0000,1,   1,   2,   1,1.04094470, -40.487237, 1.10000, 0.90000, 1.10000, 0.90000
   13,'PELZER 1    ', 138.0000,1,   1,   2,   1,1.04064965, -40.520254, 1.10000, 0.90000, 1.10000, 0.90000
   14,'SENECA 3 0  ', 345.0000,1,   1,   1,   1,1.04018784, -31.695486, 1.10000, 0.90000, 1.10000, 0.90000
   15,'SENECA 3 1  ', 138.0000,1,   1,   1,   1,1.03985500, -33.749044, 1.10000, 0.90000, 1.10000, 0.90000
   16,'SENECA 3 2  ',  13.8000,2,   1,   1,   1,1.03999996, -28.864400, 1.10000, 0.90000, 1.10000, 0.90000
   17,'SENECA 3 3  ',  13.8000,3,   1,   1,   1,1.03999996, -28.308834, 1.10000, 0.90000, 1.10000, 0.90000
   18,'SENECA 3 4  ',  13.8000,2,   1,   1,   1,1.03999996, -27.422853, 1.10000, 0.90000, 1.10000, 0.90000
   19,'MONETTA 0   ', 138.0000,1,   1,   5,   1,1.03677070, -44.961086, 1.10000, 0.90000, 1.10000, 0.90000
   20,'MONETTA 1   ', 138.0000,1,   1,   5,   1,1.03672266, -44.967377, 1.10000, 0.90000, 1.10000, 0.90000
   21,'LEXINGTON ~2', 138.0000,1,   1,   6,   1,1.02492726, -43.817535, 1.10000, 0.90000, 1.10000, 0.90000
   22,'LEXINGTON ~3', 138.0000,1,   1,   6,   1,1.02345288, -43.990451, 1.10000, 0.90000, 1.10000, 0.90000
   23,'WELLFORD 0  ', 345.0000,1,   1,   3,   1,1.04013968, -36.887564, 1.10000, 0.90000, 1.10000, 0.90000
   24,'WELLFORD 1  ', 138.0000,1,   1,   3,   1,1.03487968, -38.416157, 1.10000, 0.90000, 1.10000, 0.90000
   25,'WELLFORD 2  ', 138.0000,1,   1,   3,   1,1.03485978, -38.418574, 1.10000, 0.90000, 1.10000, 0.90000
   26,'WELLFORD 3  ', 138.0000,1,   1,   3,   1,1.03469360, -38.439833, 1.10000, 0.90000, 1.10000, 0.90000
   27,'LAURENS 0   ', 138.0000,1,   1,   3,   1,1.07097995, -41.850328, 1.10000, 0.90000, 1.10000, 0.90000
   28,'LAURENS 1   ', 138.0000,1,   1,   3,   1,1.07039428, -41.918172, 1.10000, 0.90000, 1.10000, 0.90000
   29,'COLUMBIA 1~1', 138.0000,1,   1,   6,   1,1.02209389, -46.192115, 1.10000, 0.90000, 1.10000, 0.90000
   30,'COLUMBIA 1~2', 138.0000,1,   1,   6,   1,1.02105820, -46.313488, 1.10000, 0.90000, 1.10000, 0.90000
   31,'WINDSOR 0   ', 138.0000,1,   1,   5,   1,1.05873144, -46.497903, 1.10000, 0.90000, 1.10000, 0.90000
   32,'WINDSOR 1   ', 138.0000,1,   1,   5,   1,1.05863273, -46.509210, 1.10000, 0.90000, 1.10000, 0.90000
   33,'PROSPERITY 0', 138.0000,1,   1,   5,   1,1.02699161, -45.565216, 1.10000, 0.90000, 1.10000, 0.90000
   34,'PROSPERITY 1', 138.0000,1,   1,   5,   1,1.02673793, -45.594614, 1.10000, 0.90000, 1.10000, 0.90000
   35,'NORTH AUGU~3', 138.0000,1,   1,   5,   1,1.04089189, -45.580789, 1.10000, 0.90000, 1.10000, 0.90000
   36,'NORTH AUGU~4', 138.0000,1,   1,   5,   1,1.04048920, -45.626562, 1.10000, 0.90000, 1.10000, 0.90000
   37,'LANDO 0     ', 138.0000,1,   1,   4,   1,1.02320015, -30.818476, 1.10000, 0.90000, 1.10000, 0.90000
   38,'LANDO 1     ', 138.0000,1,   1,   4,   1,1.02319884, -30.818650, 1.10000, 0.90000, 1.10000, 0.90000
   39,'GAFFNEY 3 0 ', 345.0000,1,   1,   3,   1,1.04047275, -37.023307, 1.10000, 0.90000, 1.10000, 0.90000
   40,'GAFFNEY 3 1 ', 138.0000,1,   1,   3,   1,1.03743458, -37.680852, 1.10000, 0.90000, 1.10000, 0.90000
   41,'GAFFNEY 3 2 ', 138.0000,1,   1,   3,   1,1.03689861, -37.747030, 1.10000, 0.90000, 1.10000, 0.90000
   42,'CLARKS HIL~4', 138.0000,1,   1,   5,   1,1.04466617, -43.809977, 1.10000, 0.90000, 1.10000, 0.90000
   43,'CLARKS HIL~5', 138.0000,1,   1,   5,   1,1.04462552, -43.814813, 1.10000, 0.90000, 1.10000, 0.90000
   44,'JENKINSVIL~1', 138.0000,1,   1,   6,   1,1.02754307, -43.214228, 1.10000, 0.90000, 1.10000, 0.90000
   45,'JENKINSVIL~2', 138.0000,1,   1,   6,   1,1.02751982, -43.217110, 1.10000, 0.90000, 1.10000, 0.90000
   46,'WOODRUFF 0  ', 138.0000,1,   1,   3,   1,1.02373838, -39.831553, 1.10000, 0.90000, 1.10000, 0.90000
   47,'WOODRUFF 1  ', 138.0000,1,   1,   3,   1,1.02336931, -39.876171, 1.10000, 0.90000, 1.10000, 0.90000
   48,'IVA 0       ', 138.0000,1,   1,   5,   1,1.05045199, -43.101813, 1.10000, 0.90000, 1.10000, 0.90000
   49,'IVA 1       ',  13.8000,2,   1,   5,   1,1.05019045, -42.912658, 1.10000, 0.90000, 1.10000, 0.90000
   50,'IVA 2       ',  13.8000,2,   1,   5,   1,1.05012703, -42.879757, 1.10000, 0.90000, 1.10000, 0.90000
   51,'IVA 3       ', 138.0000,1,   1,   5,   1,1.05044818, -43.102261, 1.10000, 0.90000, 1.10000, 0.90000
   52,'IVA 4       ', 138.0000,1,   1,   5,   1,1.05021822, -43.128605, 1.10000, 0.90000, 1.10000, 0.90000
   53,'CAYCE 0     ', 138.0000,1,   1,   6,   1,1.02552390, -45.355451, 1.10000, 0.90000, 1.10000, 0.90000
   54,'CAYCE 1     ', 138.0000,1,   1,   6,   1,1.02516508, -45.394001, 1.10000, 0.90000, 1.10000, 0.90000
   55,'TROY 0      ', 138.0000,1,   1,   5,   1,1.04562008, -42.313633, 1.10000, 0.90000, 1.10000, 0.90000
   56,'TROY 1      ', 138.0000,1,   1,   5,   1,1.04559731, -42.316208, 1.10000, 0.90000, 1.10000, 0.90000
   57,'SIMPSONVIL~3', 345.0000,1,   1,   2,   1,1.04381084, -37.520575, 1.10000, 0.90000, 1.10000, 0.90000
   58,'SIMPSONVIL~4', 138.0000,1,   1,   2,   1,1.04574704, -39.070509, 1.10000, 0.90000, 1.10000, 0.90000
   59,'SIMPSONVIL~5', 138.0000,1,   1,   2,   1,1.04448569, -39.224619, 1.10000, 0.90000, 1.10000, 0.90000
   60,'MAYO 0      ', 138.0000,1,   1,   3,   1,1.03592169, -37.973041, 1.10000, 0.90000, 1.10000, 0.90000
   61,'MAYO 1      ', 138.0000,1,   1,   3,   1,1.03592002, -37.973253, 1.10000, 0.90000, 1.10000, 0.90000
   62,'BELTON 2 0  ', 138.0000,1,   1,   6,   1,1.02319157, -45.753187, 1.10000, 0.90000, 1.10000, 0.90000
   63,'BELTON 2 1  ',  13.8000,1,   1,   6,   1,1.02319157, -45.753187, 1.10000, 0.90000, 1.10000, 0.90000
   64,'BELTON 2 2  ', 138.0000,1,   1,   6,   1,1.02282321, -45.794796, 1.10000, 0.90000, 1.10000, 0.90000
   65,'BRADLEY 0   ', 345.0000,1,   1,   5,   1,1.04598141, -40.520234, 1.10000, 0.90000, 1.10000, 0.90000
   66,'BRADLEY 1   ', 138.0000,1,   1,   5,   1,1.04637742, -41.615222, 1.10000, 0.90000, 1.10000, 0.90000
   67,'BRADLEY 2   ', 138.0000,1,   1,   5,   1,1.04633021, -41.620506, 1.10000, 0.90000, 1.10000, 0.90000
   68,'ENOREE 0    ', 138.0000,1,   1,   3,   1,1.05421484, -40.476787, 1.10000, 0.90000, 1.10000, 0.90000
   69,'ENOREE 1    ', 138.0000,1,   1,   3,   1,1.05405545, -40.495853, 1.10000, 0.90000, 1.10000, 0.90000
   70,'HONEA PATH~2', 138.0000,1,   1,   2,   1,1.03941834, -41.374281, 1.10000, 0.90000, 1.10000, 0.90000
   71,'HONEA PATH~3',  13.8000,2,   1,   2,   1,1.03999996, -41.345618, 1.10000, 0.90000, 1.10000, 0.90000
   72,'HONEA PATH~4',  13.8000,2,   1,   2,   1,1.03999996, -41.326066, 1.10000, 0.90000, 1.10000, 0.90000
   73,'HONEA PATH~5',  13.8000,2,   1,   2,   1,1.03999996, -41.307727, 1.10000, 0.90000, 1.10000, 0.90000
   74,'SPRINGFIEL~1', 138.0000,1,   1,   6,   1,1.05048001, -46.469288, 1.10000, 0.90000, 1.10000, 0.90000
   75,'SPRINGFIEL~2', 138.0000,1,   1,   6,   1,1.05042744, -46.475469, 1.10000, 0.90000, 1.10000, 0.90000
   76,'EDGEMOOR 0  ', 138.0000,1,   1,   4,   1,1.02193451, -29.474811, 1.10000, 0.90000, 1.10000, 0.90000
   77,'EDGEMOOR 1  ', 138.0000,1,   1,   4,   1,1.02186155, -29.482915, 1.10000, 0.90000, 1.10000, 0.90000
   78,'NEWRY 0     ', 138.0000,1,   1,   1,   1,1.03943896, -35.697451, 1.10000, 0.90000, 1.10000, 0.90000
   79,'NEWRY 1     ', 138.0000,1,   1,   1,   1,1.03943539, -35.697864, 1.10000, 0.90000, 1.10000, 0.90000
   80,'CLARKS HIL~1', 345.0000,1,   1,   5,   1,1.04481697, -41.530023, 1.10000, 0.90000, 1.10000, 0.90000
   81,'CLARKS HIL~2', 138.0000,1,   1,   5,   1,1.04523873, -43.160744, 1.10000, 0.90000, 1.10000, 0.90000
   82,'CLARKS HIL~3',  13.8000,2,   1,   5,   1,1.03999996, -39.690516, 1.10000, 0.90000, 1.10000, 0.90000
   83,'NEWBERRY 0  ', 138.0000,1,   1,   5,   1,1.02608120, -45.709108, 1.10000, 0.90000, 1.10000, 0.90000
   84,'NEWBERRY 1  ', 138.0000,1,   1,   5,   1,1.02540982, -45.790025, 1.10000, 0.90000, 1.10000, 0.90000
   85,'AIKEN 3 0   ', 138.0000,1,   1,   5,   1,1.04903841, -45.807719, 1.10000, 0.90000, 1.10000, 0.90000
   86,'AIKEN 3 1   ', 138.0000,1,   1,   5,   1,1.04884124, -45.831423, 1.10000, 0.90000, 1.10000, 0.90000
   87,'ROCK HILL ~5', 138.0000,1,   1,   4,   1,1.02099836, -25.575150, 1.10000, 0.90000, 1.10000, 0.90000
   88,'ROCK HILL ~6', 138.0000,1,   1,   4,   1,1.02094328, -25.581826, 1.10000, 0.90000, 1.10000, 0.90000
   89,'CAMERON 0   ', 138.0000,1,   1,   6,   1,1.02941167, -44.227346, 1.10000, 0.90000, 1.10000, 0.90000
   90,'CAMERON 1   ', 138.0000,1,   1,   6,   1,1.02934754, -44.235713, 1.10000, 0.90000, 1.10000, 0.90000
   91,'SENECA 2 0  ', 138.0000,1,   1,   1,   1,1.03419924, -34.812262, 1.10000, 0.90000, 1.10000, 0.90000
   92,'SENECA 2 1  ', 138.0000,1,   1,   1,   1,1.03355956, -34.892066, 1.10000, 0.90000, 1.10000, 0.90000
   93,'BLAIR 0     ', 138.0000,1,   1,   6,   1,1.02531767, -37.026008, 1.10000, 0.90000, 1.10000, 0.90000
   94,'BLAIR 1     ', 138.0000,1,   1,   6,   1,1.02526712, -37.032302, 1.10000, 0.90000, 1.10000, 0.90000
   95,'WALHALLA 0  ', 138.0000,1,   1,   1,   1,1.03451753, -34.962345, 1.10000, 0.90000, 1.10000, 0.90000
   96,'WALHALLA 1  ', 138.0000,1,   1,   1,   1,1.03420651, -34.999682, 1.10000, 0.90000, 1.10000, 0.90000
   97,'ANDERSON 4 0', 138.0000,1,   1,   1,   1,1.05944335, -42.709610, 1.10000, 0.90000, 1.10000, 0.90000
   98,'ANDERSON 4 1', 138.0000,1,   1,   1,   1,1.05906534, -42.757602, 1.10000, 0.90000, 1.10000, 0.90000
   99,'PACOLET 0   ', 138.0000,1,   1,   3,   1,1.03989232, -37.843916, 1.10000, 0.90000, 1.10000, 0.90000
  100,'PACOLET 1   ', 138.0000,1,   1,   3,   1,1.03977287, -37.858017, 1.10000, 0.90000, 1.10000, 0.90000
  101,'PACOLET 2   ', 138.0000,1,   1,   3,   1,1.03988457, -37.844753, 1.10000, 0.90000, 1.10000, 0.90000
  102,'ABBEVILLE 0 ', 138.0000,1,   1,   5,   1,1.04475963, -43.399411, 1.10000, 0.90000, 1.10000, 0.90000
  103,'ABBEVILLE 1 ', 138.0000,1,   1,   5,   1,1.04433429, -43.451898, 1.10000, 0.90000, 1.10000, 0.90000
  104,'AIKEN 2 0   ', 138.0000,1,   1,   5,   1,1.04598975, -46.669183, 1.10000, 0.90000, 1.10000, 0.90000
  105,'AIKEN 2 1   ', 138.0000,1,   1,   5,   1,1.04509532, -46.773596, 1.10000, 0.90000, 1.10000, 0.90000
  106,'JOHNSTON 0  ', 138.0000,1,   1,   5,   1,1.04063797, -44.988574, 1.10000, 0.90000, 1.10000, 0.90000
  107,'JOHNSTON 1  ', 138.0000,1,   1,   5,   1,1.04048526, -45.006527, 1.10000, 0.90000, 1.10000, 0.90000
  108,'SPARTANBU~14', 138.0000,1,   1,   3,   1,1.03496420, -38.308950, 1.10000, 0.90000, 1.10000, 0.90000
  109,'SPARTANBU~15', 138.0000,1,   1,   3,   1,1.03458059, -38.350129, 1.10000, 0.90000, 1.10000, 0.90000
  110,'GAFFNEY 2 0 ', 138.0000,1,   1,   3,   1,1.04300690, -27.149413, 1.10000, 0.90000, 1.10000, 0.90000
  111,'GAFFNEY 2 1 ', 138.0000,1,   1,   3,   1,1.04248941, -27.216239, 1.10000, 0.90000, 1.10000, 0.90000
  112,'LEESVILLE 0 ', 138.0000,1,   1,   5,   1,1.03124046, -44.747182, 1.10000, 0.90000, 1.10000, 0.90000
  113,'LEESVILLE 1 ', 138.0000,1,   1,   5,   1,1.03078270, -44.797913, 1.10000, 0.90000, 1.10000, 0.90000
  114,'LANGLEY 0   ', 138.0000,1,   1,   5,   1,1.04387093, -45.857849, 1.10000, 0.90000, 1.10000, 0.90000
  115,'LANGLEY 1   ', 138.0000,1,   1,   5,   1,1.04382372, -45.863808, 1.10000, 0.90000, 1.10000, 0.90000
  116,'LANGLEY 2   ', 138.0000,1,   1,   5,   1,1.04384172, -45.861558, 1.10000, 0.90000, 1.10000, 0.90000
  117,'DONALDS 0   ', 138.0000,1,   1,   5,   1,1.04161203, -41.353107, 1.10000, 0.90000, 1.10000, 0.90000
  118,'DONALDS 1   ', 138.0000,1,   1,   5,   1,1.04151416, -41.365033, 1.10000, 0.90000, 1.10000, 0.90000
  119,'GREENVILL~17', 138.0000,1,   1,   2,   1,1.04279637, -40.694571, 1.10000, 0.90000, 1.10000, 0.90000
  120,'GREENVILL~18', 138.0000,1,   1,   2,   1,1.04256058, -40.722052, 1.10000, 0.90000, 1.10000, 0.90000
  121,'COLUMBIA 9 0', 138.0000,1,   1,   6,   1,1.02361250, -46.037493, 1.10000, 0.90000, 1.10000, 0.90000
  122,'COLUMBIA 9 1', 138.0000,1,   1,   6,   1,1.02302980, -46.113684, 1.10000, 0.90000, 1.10000, 0.90000
  123,'SALEM 3 0   ', 345.0000,1,   1,   1,   1,1.04180837, -34.150154, 1.10000, 0.90000, 1.10000, 0.90000
  124,'SALEM 3 1   ', 138.0000,1,   1,   1,   1,1.04131734, -34.344739, 1.10000, 0.90000, 1.10000, 0.90000
  125,'SALEM 3 2   ',  13.8000,1,   1,   1,   1,1.04180837, -34.150154, 1.10000, 0.90000, 1.10000, 0.90000
  126,'SALEM 3 3   ',  13.8000,1,   1,   1,   1,1.04180837, -34.150154, 1.10000, 0.90000, 1.10000, 0.90000
  127,'SALEM 3 4   ',  13.8000,2,   1,   1,   1,1.03999996, -32.880780, 1.10000, 0.90000, 1.10000, 0.90000
  128,'SALEM 3 5   ',  13.8000,2,   1,   1,   1,1.04064822, -33.730169, 1.10000, 0.90000, 1.10000, 0.90000
  129,'GREENVILL~15', 138.0000,1,   1,   2,   1,1.04727316, -41.036985, 1.10000, 0.90000, 1.10000, 0.90000
  130,'GREENVILL~16', 138.0000,1,   1,   2,   1,1.04640234, -41.129705, 1.10000, 0.90000, 1.10000, 0.90000
  131,'COWPENS 0   ', 138.0000,1,   1,   3,   1,1.03635955, -37.906583, 1.10000, 0.90000, 1.10000, 0.90000
  132,'COWPENS 1   ', 138.0000,1,   1,   3,   1,1.03613222, -37.932948, 1.10000, 0.90000, 1.10000, 0.90000
  133,'WESTMINSTE~3', 138.0000,1,   1,   1,   1,1.03517306, -34.847236, 1.10000, 0.90000, 1.10000, 0.90000
  134,'WESTMINSTE~4', 138.0000,1,   1,   1,   1,1.03480864, -34.891629, 1.10000, 0.90000, 1.10000, 0.90000
  135,'SAINT MATT~1', 138.0000,1,   1,   6,   1,1.02757239, -44.619047, 1.10000, 0.90000, 1.10000, 0.90000
  136,'SAINT MATT~2', 138.0000,1,   1,   6,   1,1.02729201, -44.655053, 1.10000, 0.90000, 1.10000, 0.90000
  137,'GREENWOOD ~3', 138.0000,1,   1,   5,   1,1.03860712, -42.139689, 1.10000, 0.90000, 1.10000, 0.90000
  138,'GREENWOOD ~4', 138.0000,1,   1,   5,   1,1.03778088, -42.245420, 1.10000, 0.90000, 1.10000, 0.90000
  139,'FINGERVILL~1', 138.0000,1,   1,   3,   1,1.03473043, -38.220625, 1.10000, 0.90000, 1.10000, 0.90000
  140,'FINGERVILL~2', 138.0000,1,   1,   3,   1,1.03472841, -38.220861, 1.10000, 0.90000, 1.10000, 0.90000
  141,'ROCK HILL ~3', 138.0000,1,   1,   4,   1,1.02331579, -28.821824, 1.10000, 0.90000, 1.10000, 0.90000
  142,'ROCK HILL ~4', 138.0000,1,   1,   4,   1,1.02159524, -29.016126, 1.10000, 0.90000, 1.10000, 0.90000
  143,'YORK 2 0    ', 138.0000,1,   1,   4,   1,1.03063416, -20.264917, 1.10000, 0.90000, 1.10000, 0.90000
  144,'YORK 2 1    ',  13.8000,2,   1,   4,   1,1.03999996, -14.962482, 1.10000, 0.90000, 1.10000, 0.90000
  145,'YORK 2 2    ',  13.8000,2,   1,   4,   1,1.03999996, -15.896714, 1.10000, 0.90000, 1.10000, 0.90000
  146,'CHAPIN 0    ', 345.0000,1,   1,   6,   1,1.03528357, -40.768323, 1.10000, 0.90000, 1.10000, 0.90000
  147,'CHAPIN 1    ', 138.0000,1,   1,   6,   1,1.02572405, -40.274026, 1.10000, 0.90000, 1.10000, 0.90000
  148,'CHAPIN 2    ', 138.0000,1,   1,   6,   1,1.02507401, -40.357409, 1.10000, 0.90000, 1.10000, 0.90000
  149,'MODOC 0     ', 138.0000,1,   1,   5,   1,1.04442048, -43.610355, 1.10000, 0.90000, 1.10000, 0.90000
  150,'MODOC 1     ', 138.0000,1,   1,   5,   1,1.04440379, -43.612278, 1.10000, 0.90000, 1.10000, 0.90000
  151,'SPARTANBU~11', 345.0000,1,   1,   3,   1,1.03948379, -37.013956, 1.10000, 0.90000, 1.10000, 0.90000
  152,'SPARTANBU~12', 138.0000,1,   1,   3,   1,1.03281355, -38.333095, 1.10000, 0.90000, 1.10000, 0.90000
  153,'SPARTANBU~13', 138.0000,1,   1,   3,   1,1.03211224, -38.417990, 1.10000, 0.90000, 1.10000, 0.90000
  154,'BOILING SP~1', 138.0000,1,   1,   3,   1,1.03107560, -38.706662, 1.10000, 0.90000, 1.10000, 0.90000
  155,'BOILING SP~2', 138.0000,1,   1,   3,   1,1.03058136, -38.765551, 1.10000, 0.90000, 1.10000, 0.90000
  156,'GREENVILL~13', 138.0000,1,   1,   2,   1,1.01944733, -40.574336, 1.10000, 0.90000, 1.10000, 0.90000
  157,'GREENVILL~14', 138.0000,1,   1,   2,   1,1.01853609, -40.686955, 1.10000, 0.90000, 1.10000, 0.90000
  158,'PELION 0    ', 138.0000,1,   1,   6,   1,1.02323508, -45.540833, 1.10000, 0.90000, 1.10000, 0.90000
  159,'PELION 1    ', 138.0000,1,   1,   6,   1,1.02297747, -45.573601, 1.10000, 0.90000, 1.10000, 0.90000
  160,'GRANITEVIL~1', 138.0000,1,   1,   5,   1,1.03948677, -45.068307, 1.10000, 0.90000, 1.10000, 0.90000
  161,'GRANITEVIL~2', 138.0000,1,   1,   5,   1,1.03922522, -45.100986, 1.10000, 0.90000, 1.10000, 0.90000
  162,'IRMO 0      ', 345.0000,1,   1,   6,   1,1.03544247, -40.806914, 1.10000, 0.90000, 1.10000, 0.90000
  163,'IRMO 1      ', 138.0000,1,   1,   6,   1,1.03286803, -41.525532, 1.10000, 0.90000, 1.10000, 0.90000
  164,'IRMO 2      ', 138.0000,1,   1,   6,   1,1.03171480, -41.667549, 1.10000, 0.90000, 1.10000, 0.90000
  165,'SALEM 2 0   ', 345.0000,1,   1,   1,   1,1.04135299, -33.838704, 1.10000, 0.90000, 1.10000, 0.90000
  166,'SALEM 2 1   ', 138.0000,1,   1,   1,   1,1.04124188, -34.711349, 1.10000, 0.90000, 1.10000, 0.90000
  167,'SALEM 2 2   ',  13.8000,2,   1,   1,   1,1.03999996, -33.154551, 1.10000, 0.90000, 1.10000, 0.90000
  168,'SALEM 2 3   ',  13.8000,2,   1,   1,   1,1.03999996, -32.715401, 1.10000, 0.90000, 1.10000, 0.90000
  169,'SALEM 2 4   ',  13.8000,2,   1,   1,   1,1.03999996, -32.219160, 1.10000, 0.90000, 1.10000, 0.90000
  170,'WEST UNION 0', 138.0000,1,   1,   1,   1,1.03437209, -35.035551, 1.10000, 0.90000, 1.10000, 0.90000
  171,'WEST UNION 1', 138.0000,1,   1,   1,   1,1.03425193, -35.051482, 1.10000, 0.90000, 1.10000, 0.90000
  172,'CROSS HILL 0', 138.0000,1,   1,   5,   1,1.03675067, -41.051223, 1.10000, 0.90000, 1.10000, 0.90000
  173,'CROSS HILL 1', 138.0000,1,   1,   5,   1,1.03671885, -41.054652, 1.10000, 0.90000, 1.10000, 0.90000
  174,'CROSS HILL 2', 138.0000,1,   1,   5,   1,1.03668237, -41.059020, 1.10000, 0.90000, 1.10000, 0.90000
  175,'FORT LAWN 0 ', 345.0000,1,   1,   4,   1,1.03853774, -35.955851, 1.10000, 0.90000, 1.10000, 0.90000
  176,'FORT LAWN 1 ', 138.0000,1,   1,   4,   1,1.02737474, -33.571814, 1.10000, 0.90000, 1.10000, 0.90000
  177,'FORT LAWN 2 ', 138.0000,1,   1,   4,   1,1.02728593, -33.583152, 1.10000, 0.90000, 1.10000, 0.90000
  178,'FORT LAWN 3 ', 138.0000,1,   1,   4,   1,1.02730596, -33.579286, 1.10000, 0.90000, 1.10000, 0.90000
  179,'NORTH 0     ', 138.0000,1,   1,   6,   1,1.01976871, -46.475305, 1.10000, 0.90000, 1.10000, 0.90000
  180,'NORTH 1     ', 138.0000,1,   1,   6,   1,1.01961470, -46.492439, 1.10000, 0.90000, 1.10000, 0.90000
  181,'ANDERSON 3 0', 138.0000,1,   1,   1,   1,1.06651568, -42.424023, 1.10000, 0.90000, 1.10000, 0.90000
  182,'ANDERSON 3 1', 138.0000,1,   1,   1,   1,1.06568336, -42.521636, 1.10000, 0.90000, 1.10000, 0.90000
  183,'BLACKSBURG~6', 138.0000,1,   1,   4,   1,1.02789891, -27.255470, 1.10000, 0.90000, 1.10000, 0.90000
  184,'BLACKSBURG~7', 138.0000,1,   1,   4,   1,1.02763057, -27.287325, 1.10000, 0.90000, 1.10000, 0.90000
  185,'LIBERTY 0   ', 138.0000,1,   1,   1,   1,1.03857565, -35.859303, 1.10000, 0.90000, 1.10000, 0.90000
  186,'LIBERTY 1   ', 138.0000,1,   1,   1,   1,1.03817713, -35.905734, 1.10000, 0.90000, 1.10000, 0.90000
  187,'ELLOREE 0   ', 138.0000,1,   1,   6,   1,1.02892983, -44.430200, 1.10000, 0.90000, 1.10000, 0.90000
  188,'ELLOREE 1   ', 138.0000,1,   1,   6,   1,1.02881551, -44.442716, 1.10000, 0.90000, 1.10000, 0.90000
  189,'WAGENER 0   ', 138.0000,1,   1,   5,   1,1.05414379, -46.619654, 1.10000, 0.90000, 1.10000, 0.90000
  190,'WAGENER 1   ', 138.0000,1,   1,   5,   1,1.05400538, -46.633892, 1.10000, 0.90000, 1.10000, 0.90000
  191,'TRENTON 0   ', 138.0000,1,   1,   5,   1,1.04352415, -45.466578, 1.10000, 0.90000, 1.10000, 0.90000
  192,'TRENTON 1   ', 138.0000,1,   1,   5,   1,1.04333937, -45.488090, 1.10000, 0.90000, 1.10000, 0.90000
  193,'BATESBURG 0 ', 138.0000,1,   1,   5,   1,1.03359008, -44.993325, 1.10000, 0.90000, 1.10000, 0.90000
  194,'BATESBURG 1 ', 138.0000,1,   1,   5,   1,1.03326023, -45.031980, 1.10000, 0.90000, 1.10000, 0.90000
  195,'COLUMBIA 8 0', 345.0000,1,   1,   6,   1,1.03545916, -40.766295, 1.10000, 0.90000, 1.10000, 0.90000
  196,'COLUMBIA 8 1', 138.0000,1,   1,   6,   1,1.03037775, -42.310491, 1.10000, 0.90000, 1.10000, 0.90000
  197,'COLUMBIA 8 2',  13.8000,2,   1,   6,   1,1.03999996, -36.398423, 1.10000, 0.90000, 1.10000, 0.90000
  198,'COLUMBIA 8 3',  13.8000,2,   1,   6,   1,1.03999996, -38.360224, 1.10000, 0.90000, 1.10000, 0.90000
  199,'COLUMBIA 8 4', 138.0000,1,   1,   6,   1,1.02944255, -42.413467, 1.10000, 0.90000, 1.10000, 0.90000
  200,'LITTLE MOU~1', 138.0000,1,   1,   6,   1,1.02935958, -42.589662, 1.10000, 0.90000, 1.10000, 0.90000
...
0 / END OF BUS DATA, BEGIN LOAD DATA
    2,'1 ',1,   1,   6,    30.199,     8.053,     0.000,     0.000,     0.000,     0.000,   1,1, 0
    4,'1 ',1,   1,   6,    93.620,    24.965,     0.000,     0.000,     0.000,     0.000,   1,1, 0
    6,'1 ',1,   1,   4,     2.183,     0.582,     0.000,     0.000,     0.000,     0.000,   1,1, 0
   11,'1 ',1,   1,   5,     1.716,     0.458,     0.000,     0.000,     0.000,     0.000,   1,1, 0
   13,'1 ',1,   1,   2,    21.033,     5.609,     0.000,     0.000,     0.000,     0.000,   1,1, 0
   20,'1 ',1,   1,   5,     3.153,     0.841,     0.000,     0.000,     0.000,     0.000,   1,1, 0
   22,'1 ',1,   1,   6,   104.916,    27.978,     0.000,     0.000,     0.000,     0.000,   1,1, 0
   25,'1 ',1,   1,   3,     1.303,     0.347,     0.000,     0.000,     0.000,     0.000,   1,1, 0
   26,'1 ',1,   1,   3,    12.362,     3.297,     0.000,     0.000,     0.000,     0.000,   1,1, 0
   28,'1 ',1,   1,   3,    35.912,     9.577,     0.000,     0.000,     0.000,     0.000,   1,1, 0
   30,'1 ',1,   1,   6,    70.537,    18.810,     0.000,     0.000,     0.000,     0.000,   1,1, 0
   32,'1 ',1,   1,   5,     6.780,     1.808,     0.000,     0.000,     0.000,     0.000,   1,1, 0
   34,'1 ',1,   1,   5,    17.357,     4.628,     0.000,     0.000,     0.000,     0.000,   1,1, 0
   36,'1 ',1,   1,   5,    30.098,     8.026,     0.000,     0.000,     0.000,     0.000,   1,1, 0
   38,'1 ',1,   1,   4,     0.088,     0.023,     0.000,     0.000,     0.000,     0.000,   1,1, 0
   41,'1 ',1,   1,   3,    33.093,     8.825,     0.000,     0.000,     0.000,     0.000,   1,1, 0
   43,'1 ',1,   1,   5,     3.097,     0.826,     0.000,     0.000,     0.000,     0.000,   1,1, 0
   45,'1 ',1,   1,   6,     1.433,     0.382,     0.000,     0.000,     0.000,     0.000,   1,1, 0
   47,'1 ',1,   1,   3,    24.772,     6.606,     0.000,     0.000,     0.000,     0.000,   1,1, 0
   51,'1 ',1,   1,   5,     0.246,     0.066,     0.000,     0.000,     0.000,     0.000,   1,1, 0
   52,'1 ',1,   1,   5,    16.238,     4.330,     0.000,     0.000,     0.000,     0.000,   1,1, 0
   54,'1 ',1,   1,   6,    24.560,     6.549,     0.000,     0.000,     0.000,     0.000,   1,1, 0
   56,'1 ',1,   1,   5,     1.564,     0.417,     0.000,     0.000,     0.000,     0.000,   1,1, 0
   59,'1 ',1,   1,   2,    79.768,    21.272,     0.000,     0.000,     0.000,     0.000,   1,1, 0
   61,'1 ',1,   1,   3,     0.116,     0.031,     0.000,     0.000,     0.000,     0.000,   1,1, 0
   64,'1 ',1,   1,   6,    24.537,     6.543,     0.000,     0.000,     0.000,     0.000,   1,1, 0
   67,'1 ',1,   1,   5,     3.172,     0.846,     0.000,     0.000,     0.000,     0.000,   1,1, 0
   69,'1 ',1,   1,   3,     9.680,     2.581,     0.000,     0.000,     0.000,     0.000,   1,1, 0
   75,'1 ',1,   1,   6,     3.740,     0.997,     0.000,     0.000,     0.000,     0.000,   1,1, 0
   77,'1 ',1,   1,   4,     4.723,     1.260,     0.000,     0.000,     0.000,     0.000,   1,1, 0
   79,'1 ',1,   1,   1,     0.252,     0.067,     0.000,     0.000,     0.000,     0.000,   1,1, 0
   84,'1 ',1,   1,   5,    42.635,    11.369,     0.000,     0.000,     0.000,     0.000,   1,1, 0
   86,'1 ',1,   1,   5,    12.214,     3.257,     0.000,     0.000,     0.000,     0.000,   1,1, 0
   88,'1 ',1,   1,   4,     3.570,     0.952,     0.000,     0.000,     0.000,     0.000,   1,1, 0
   90,'1 ',1,   1,   6,     4.164,     1.110,     0.000,     0.000,     0.000,     0.000,   1,1, 0
   92,'1 ',1,   1,   1,    42.970,    11.459,     0.000,     0.000,     0.000,     0.000,   1,1, 0
   94,'1 ',1,   1,   6,     3.679,     0.981,     0.000,     0.000,     0.000,     0.000,   1,1, 0
   96,'1 ',1,   1,   1,    22.466,     5.991,     0.000,     0.000,     0.000,     0.000,   1,1, 0
   98,'1 ',1,   1,   1,    24.510,     6.536,     0.000,     0.000,     0.000,     0.000,   1,1, 0
  100,'1 ',1,   1,   3,     7.716,     2.058,     0.000,     0.000,     0.000,     0.000,   1,1, 0
  101,'1 ',1,   1,   3,     0.508,     0.136,     0.000,     0.000,     0.000,     0.000,   1,1, 0
  103,'1 ',1,   1,   5,    26.940,     7.184,     0.000,     0.000,     0.000,     0.000,   1,1, 0
  105,'1 ',1,   1,   5,    55.776,    14.873,     0.000,     0.000,     0.000,     0.000,   1,1, 0
  107,'1 ',1,   1,   5,    11.112,     2.963,     0.000,     0.000,     0.000,     0.000,   1,1, 0
  109,'1 ',1,   1,   3,    27.154,     7.241,     0.000,     0.000,     0.000,     0.000,   1,1, 0
  111,'1 ',1,   1,   3,    35.546,     9.479,     0.000,     0.000,     0.000,     0.000,   1,1, 0
  113,'1 ',1,   1,   5,    31.931,     8.515,     0.000,     0.000,     0.000,     0.000,   1,1, 0
  115,'1 ',1,   1,   5,     3.514,     0.937,     0.000,     0.000,     0.000,     0.000,   1,1, 0
  116,'1 ',1,   1,   5,     2.152,     0.574,     0.000,     0.000,     0.000,     0.000,   1,1, 0
  118,'1 ',1,   1,   5,     6.132,     1.635,     0.000,     0.000,     0.000,     0.000,   1,1, 0
  120,'1 ',1,   1,   2,    17.913,     4.777,     0.000,     0.000,     0.000,     0.000,   1,1, 0
  122,'1 ',1,   1,   6,    37.652,    10.040,     0.000,     0.000,     0.000,     0.000,   1,1, 0
  130,'1 ',1,   1,   2,    58.433,    15.582,     0.000,     0.000,     0.000,     0.000,   1,1, 0
  132,'1 ',1,   1,   3,    14.382,     3.835,     0.000,     0.000,     0.000,     0.000,   1,1, 0
  134,'1 ',1,   1,   1,    28.179,     7.515,     0.000,     0.000,     0.000,     0.000,   1,1, 0
  136,'1 ',1,   1,   6,    18.879,     5.034,     0.000,     0.000,     0.000,     0.000,   1,1, 0
  138,'1 ',1,   1,   5,    54.645,    14.572,     0.000,     0.000,     0.000,     0.000,   1,1, 0
  140,'1 ',1,   1,   3,     0.146,     0.039,     0.000,     0.000,     0.000,     0.000,   1,1, 0
  142,'1 ',1,   1,   4,   109.636,    29.236,     0.000,     0.000,     0.000,     0.000,   1,1, 0
  148,'1 ',1,   1,   6,    40.514,    10.804,     0.000,     0.000,     0.000,     0.000,   1,1, 0
  150,'1 ',1,   1,   5,     1.044,     0.278,     0.000,     0.000,     0.000,     0.000,   1,1, 0
  153,'1 ',1,   1,   3,    53.159,    14.176,     0.000,     0.000,     0.000,     0.000,   1,1, 0
  155,'1 ',1,   1,   3,    38.145,    10.172,     0.000,     0.000,     0.000,     0.000,   1,1, 0
  157,'1 ',1,   1,   2,    59.685,    15.916,     0.000,     0.000,     0.000,     0.000,   1,1, 0
  159,'1 ',1,   1,   6,    16.123,     4.299,     0.000,     0.000,     0.000,     0.000,   1,1, 0
  161,'1 ',1,   1,   5,    18.019,     4.805,     0.000,     0.000,     0.000,     0.000,   1,1, 0
  164,'1 ',1,   1,   6,    69.252,    18.467,     0.000,     0.000,     0.000,     0.000,   1,1, 0
  171,'1 ',1,   1,   1,     8.177,     2.181,     0.000,     0.000,     0.000,     0.000,   1,1, 0
  173,'1 ',1,   1,   5,     2.177,     0.580,     0.000,     0.000,     0.000,     0.000,   1,1, 0
  174,'1 ',1,   1,   5,     5.072,     1.352,     0.000,     0.000,     0.000,     0.000,   1,1, 0
  177,'1 ',1,   1,   4,     5.967,     1.591,     0.000,     0.000,     0.000,     0.000,   1,1, 0
  178,'1 ',1,   1,   4,     4.630,     1.235,     0.000,     0.000,     0.000,     0.000,   1,1, 0
  180,'1 ',1,   1,   6,     9.974,     2.660,     0.000,     0.000,     0.000,     0.000,   1,1, 0
  182,'1 ',1,   1,   1,    54.591,    14.558,     0.000,     0.000,     0.000,     0.000,   1,1, 0
  184,'1 ',1,   1,   4,    20.506,     5.468,     0.000,     0.000,     0.000,     0.000,   1,1, 0
  186,'1 ',1,   1,   1,    29.966,     7.991,     0.000,     0.000,     0.000,     0.000,   1,1, 0
  188,'1 ',1,   1,   6,     7.796,     2.079,     0.000,     0.000,     0.000,     0.000,   1,1, 0
  190,'1 ',1,   1,   5,     9.769,     2.605,     0.000,     0.000,     0.000,     0.000,   1,1, 0
  192,'1 ',1,   1,   5,    11.414,     3.044,     0.000,     0.000,     0.000,     0.000,   1,1, 0
  194,'1 ',1,   1,   5,    19.923,     5.313,     0.000,     0.000,     0.000,     0.000,   1,1, 0
  199,'1 ',1,   1,   6,    60.957,    16.255,     0.000,     0.000,     0.000,     0.000,   1,1, 0
  201,'1 ',1,   1,   6,     6.272,     1.672,     0.000,     0.000,     0.000,     0.000,   1,1, 0
  203,'1 ',1,   1,   5,     3.256,     0.868,     0.000,     0.000,     0.000,     0.000,   1,1, 0
  204,'1 ',1,   1,   5,    31.706,     8.455,     0.000,     0.000,     0.000,     0.000,   1,1, 0
  206,'1 ',1,   1,   5,     2.089,     0.557,     0.000,     0.000,     0.000,     0.000,   1,1, 0
  207,'1 ',1,   1,   5,    15.672,     4.179,     0.000,     0.000,     0.000,     0.000,   1,1, 0
  209,'1 ',1,   1,   2,    46.328,    12.354,     0.000,     0.000,     0.000,     0.000,   1,1, 0
  211,'1 ',1,   1,   3,    19.561,     5.216,     0.000,     0.000,     0.000,     0.000,   1,1, 0
  213,'1 ',1,   1,   5,    67.681,    18.048,     0.000,     0.000,     0.000,     0.000,   1,1, 0
  215,'1 ',1,   1,   5,    58.652,    15.640,     0.000,     0.000,     0.000,     0.000,   1,1, 0
  217,'1 ',1,   1,   2,    31.186,     8.316,     0.000,     0.000,     0.000,     0.000,   1,1, 0
  219,'1 ',1,   1,   5,     0.231,     0.062,     0.000,     0.000,     0.000,     0.000,   1,1, 0
  227,'1 ',1,   1,   1,     3.584,     0.956,     0.000,     0.000,     0.000,     0.000,   1,1, 0
  229,'1 ',1,   1,   1,    35.742,     9.531,     0.000,     0.000,     0.000,     0.000,   1,1, 0
  234,'1 ',1,   1,   6,    42.309,    11.282,     0.000,     0.000,     0.000,     0.000,   1,1, 0
  237,'1 ',1,   1,   5,     1.883,     0.502,     0.000,     0.000,     0.000,     0.000,   1,1, 0
  239,'1 ',1,   1,   3,    22.331,     5.955,     0.000,     0.000,     0.000,     0.000,   1,1, 0
  241,'1 ',1,   1,   5,    13.705,     3.655,     0.000,     0.000,     0.000,     0.000,   1,1, 0
  243,'1 ',1,   1,   6,    52.541,    14.011,     0.000,     0.000,     0.000,     0.000,   1,1, 0
  245,'1 ',1,   1,   5,     8.217,     2.191,     0.000,     0.000,     0.000,     0.000,   1,1, 0
  252,'1 ',1,   1,   2,    67.173,    17.913,     0.000,     0.000,     0.000,     0.000,   1,1, 0
  259,'1 ',1,   1,   2,     4.618,     1.232,     0.000,     0.000,     0.000,     0.000,   1,1, 0
  261,'1 ',1,   1,   1,    12.346,     3.292,     0.000,     0.000,     0.000,     0.000,   1,1, 0
  266,'1 ',1,   1,   6,    43.591,    11.624,     0.000,     0.000,     0.000,     0.000,   1,1, 0
  268,'1 ',1,   1,   5,    81.335,    21.689,     0.000,     0.000,     0.000,     0.000,   1,1, 0
  270,'1 ',1,   1,   5,     4.722,     1.259,     0.000,     0.000,     0.000,     0.000,   1,1, 0
  273,'1 ',1,   1,   5,     6.590,     1.757,     0.000,     0.000,     0.000,     0.000,   1,1, 0
  277,'1 ',1,   1,   6,     0.286,     0.076,     0.000,     0.000,     0.000,     0.000,   1,1, 0
  278,'1 ',1,   1,   6,     4.070,     1.085,     0.000,     0.000,     0.000,     0.000,   1,1, 0
  280,'1 ',1,   1,   2,     9.590,     2.557,     0.000,     0.000,     0.000,     0.000,   1,1, 0
  282,'1 ',1,   1,   1,    77.513,    20.670,     0.000,     0.000,     0.000,     0.000,   1,1, 0
  284,'1 ',1,   1,   5,    22.668,     6.045,     0.000,     0.000,     0.000,     0.000,   1,1, 0
  286,'1 ',1,   1,   1,     5.463,     1.457,     0.000,     0.000,     0.000,     0.000,   1,1, 0
  288,'1 ',1,   1,   6,    40.998,    10.933,     0.000,     0.000,     0.000,     0.000,   1,1, 0
  290,'1 ',1,   1,   1,     2.438,     0.650,     0.000,     0.000,     0.000,     0.000,   1,1, 0
  292,'1 ',1,   1,   6,     5.374,     1.433,     0.000,     0.000,     0.000,     0.000,   1,1, 0
  294,'1 ',1,   1,   5,    17.777,     4.741,     0.000,     0.000,     0.000,     0.000,   1,1, 0
  296,'1 ',1,   1,   3,     4.444,     1.185,     0.000,     0.000,     0.000,     0.000,   1,1, 0
  299,'1 ',1,   1,   5,    10.114,     2.697,     0.000,     0.000,     0.000,     0.000,   1,1, 0
  303,'1 ',1,   1,   4,    58.953,    15.721,     0.000,     0.000,     0.000,     0.000,   1,1, 0
  307,'1 ',1,   1,   2,    43.040,    11.477,     0.000,     0.000,     0.000,     0.000,   1,1, 0
  309,'1 ',1,   1,   5,     6.269,     1.672,     0.000,     0.000,     0.000,     0.000,   1,1, 0
  311,'1 ',1,   1,   1,    28.963,     7.723,     0.000,     0.000,     0.000,     0.000,   1,1, 0
  313,'1 ',1,   1,   5,     8.636,     2.303,     0.000,     0.000,     0.000,     0.000,   1,1, 0
  315,'1 ',1,   1,   3,     0.243,     0.065,     0.000,     0.000,     0.000,     0.000,   1,1, 0
  317,'1 ',1,   1,   4,     2.550,     0.680,     0.000,     0.000,     0.000,     0.000,   1,1, 0
  321,'1 ',1,   1,   6,   106.133,    28.302,     0.000,     0.000,     0.000,     0.000,   1,1, 0
  323,'1 ',1,   1,   2,    25.622,     6.833,     0.000,     0.000,     0.000,     0.000,   1,1, 0
  325,'1 ',1,   1,   2,    58.557,    15.615,     0.000,     0.000,     0.000,     0.000,   1,1, 0
  327,'1 ',1,   1,   6,    85.421,    22.779,     0.000,     0.000,     0.000,     0.000,   1,1, 0
  329,'1 ',1,   1,   1,    17.193,     4.585,     0.000,     0.000,     0.000,     0.000,   1,1, 0
  331,'1 ',1,   1,   3,    32.627,     8.701,     0.000,     0.000,     0.000,     0.000,   1,1, 0
  334,'1 ',1,   1,   3,     0.286,     0.076,     0.000,     0.000,     0.000,     0.000,   1,1, 0
  335,'1 ',1,   1,   3,     0.476,     0.127,     0.000,     0.000,     0.000,     0.000,   1,1, 0
  337,'1 ',1,   1,   4,     3.855,     1.028,     0.000,     0.000,     0.000,     0.000,   1,1, 0
  339,'1 ',1,   1,   4,    51.035,    13.609,     0.000,     0.000,     0.000,     0.000,   1,1, 0
  341,'1 ',1,   1,   2,    13.709,     3.656,     0.000,     0.000,     0.000,     0.000,   1,1, 0
  343,'1 ',1,   1,   5,     1.743,     0.465,     0.000,     0.000,     0.000,     0.000,   1,1, 0
  344,'1 ',1,   1,   5,     1.687,     0.450,     0.000,     0.000,     0.000,     0.000,   1,1, 0
  346,'1 ',1,   1,   6,    33.573,     8.953,     0.000,     0.000,     0.000,     0.000,   1,1, 0
  348,'1 ',1,   1,   2,    48.899,    13.040,     0.000,     0.000,     0.000,     0.000,   1,1, 0
  355,'1 ',1,   1,   6,    14.087,     3.756,     0.000,     0.000,     0.000,     0.000,   1,1, 0
  357,'1 ',1,   1,   2,    31.545,     8.412,     0.000,     0.000,     0.000,     0.000,   1,1, 0
  359,'1 ',1,   1,   5,    10.127,     2.701,     0.000,     0.000,     0.000,     0.000,   1,1, 0
  364,'1 ',1,   1,   3,    17.370,     4.632,     0.000,     0.000,     0.000,     0.000,   1,1, 0
  366,'1 ',1,   1,   6,    39.858,    10.629,     0.000,     0.000,     0.000,     0.000,   1,1, 0
  368,'1 ',1,   1,   1,     7.569,     2.018,     0.000,     0.000,     0.000,     0.000,   1,1, 0
  370,'1 ',1,   1,   1,    23.527,     6.274,     0.000,     0.000,     0.000,     0.000,   1,1, 0
  373,'1 ',1,   1,   6,    20.346,     5.426,     0.000,     0.000,     0.000,     0.000,   1,1, 0
  375,'1 ',1,   1,   6,    17.473,     4.660,     0.000,     0.000,     0.000,     0.000,   1,1, 0
  377,'1 ',1,   1,   3,    51.581,    13.755,     0.000,     0.000,     0.000,     0.000,   1,1, 0
  379,'1 ',1,   1,   4,     8.841,     2.358,     0.000,     0.000,     0.000,     0.000,   1,1, 0
  381,'1 ',1,   1,   3,     5.781,     1.542,     0.000,     0.000,     0.000,     0.000,   1,1, 0
  383,'1 ',1,   1,   3,    17.089,     4.557,     0.000,     0.000,     0.000,     0.000,   1,1, 0
  385,'1 ',1,   1,   2,    20.727,     5.527,     0.000,     0.000,     0.000,     0.000,   1,1, 0
  397,'1 ',1,   1,   1,    26.401,     7.040,     0.000,     0.000,     0.000,     0.000,   1,1, 0
  398,'1 ',1,   1,   1,    11.080,     2.955,     0.000,     0.000,     0.000,     0.000,   1,1, 0
  400,'1 ',1,   1,   5,    15.986,     4.263,     0.000,     0.000,     0.000,     0.000,   1,1, 0
  402,'1 ',1,   1,   4,    60.034,    16.009,     0.000,     0.000,     0.000,     0.000,   1,1, 0
  404,'1 ',1,   1,   5,    13.726,     3.660,     0.000,     0.000,     0.000,     0.000,   1,1, 0
  406,'1 ',1,   1,   4,     3.567,     0.951,     0.000,     0.000,     0.000,     0.000,   1,1, 0
  416,'1 ',1,   1,   6,     4.278,     1.141,     0.000,     0.000,     0.000,     0.000,   1,1, 0
  418,'1 ',1,   1,   2,    36.005,     9.601,     0.000,     0.000,     0.000,     0.000,   1,1, 0
  420,'1 ',1,   1,   5,     3.628,     0.968,     0.000,     0.000,     0.000,     0.000,   1,1, 0
  422,'1 ',1,   1,   6,    34.699,     9.253,     0.000,     0.000,     0.000,     0.000,   1,1, 0
  424,'1 ',1,   1,   4,   106.750,    28.467,     0.000,     0.000,     0.000,     0.000,   1,1, 0
  427,'1 ',1,   1,   5,    10.021,     2.672,     0.000,     0.000,     0.000,     0.000,   1,1, 0
  446,'1 ',1,   1,   2,    50.193,    13.385,     0.000,     0.000,     0.000,     0.000,   1,1, 0
  448,'1 ',1,   1,   3,    32.846,     8.759,     0.000,     0.000,     0.000,     0.000,   1,1, 0
  450,'1 ',1,   1,   3,     0.640,     0.171,     0.000,     0.000,     0.000,     0.000,   1,1, 0
  451,'1 ',1,   1,   3,     1.262,     0.336,     0.000,     0.000,     0.000,     0.000,   1,1, 0
  452,'1 ',1,   1,   4,     7.585,     2.023,     0.000,     0.000,     0.000,     0.000,   1,1, 0
  459,'1 ',1,   1,   4,    50.603,    13.494,     0.000,     0.000,     0.000,     0.000,   1,1, 0
  460,'1 ',1,   1,   3,    15.033,     4.009,     0.000,     0.000,     0.000,     0.000,   1,1, 0
  461,'1 ',1,   1,   2,    51.913,    13.844,     0.000,     0.000,     0.000,     0.000,   1,1, 0
  465,'1 ',1,   1,   3,     7.146,     1.906,     0.000,     0.000,     0.000,     0.000,   1,1, 0
  466,'1 ',1,   1,   3,    24.731,     6.595,     0.000,     0.000,     0.000,     0.000,   1,1, 0
  467,'1 ',1,   1,   1,     0.533,     0.142,     0.000,     0.000,     0.000,     0.000,   1,1, 0
  468,'1 ',1,   1,   1,     2.486,     0.663,     0.000,     0.000,     0.000,     0.000,   1,1, 0
  469,'1 ',1,   1,   2,    72.747,    19.399,     0.000,     0.000,     0.000,     0.000,   1,1, 0
  470,'1 ',1,   1,   1,    28.122,     7.499,     0.000,     0.000,     0.000,     0.000,   1,1, 0
  472,'1 ',1,   1,   3,    28.369,     7.565,     0.000,     0.000,     0.000,     0.000,   1,1, 0
  473,'1 ',1,   1,   1,     0.660,     0.176,     0.000,     0.000,     0.000,     0.000,   1,1, 0
  474,'1 ',1,   1,   2,     3.963,     1.057,     0.000,     0.000,     0.000,     0.000,   1,1, 0
  474,'2 ',1,   1,   2,    43.612,    11.630,     0.000,     0.000,     0.000,     0.000,   1,1, 0
  474,'3 ',1,   1,   2,    47.071,    12.552,     0.000,     0.000,     0.000,     0.000,   1,1, 0
  475,'1 ',1,   1,   6,     0.114,     0.030,     0.000,     0.000,     0.000,     0.000,   1,1, 0
  476,'1 ',1,   1,   6,    42.232,    11.262,     0.000,     0.000,     0.000,     0.000,   1,1, 0
  477,'1 ',1,   1,   3,     6.050,     1.613,     0.000,     0.000,     0.000,     0.000,   1,1, 0
  477,'2 ',1,   1,   3,    11.828,     3.154,     0.000,     0.000,     0.000,     0.000,   1,1, 0
  478,'1 ',1,   1,   4,     1.207,     0.322,     0.000,     0.000,     0.000,     0.000,   1,1, 0
  478,'2 ',1,   1,   4,     5.015,     1.337,     0.000,     0.000,     0.000,     0.000,   1,1, 0
  485,'1 ',1,   1,   6,    19.671,     5.245,     0.000,     0.000,     0.000,     0.000,   1,1, 0
  486,'1 ',1,   1,   6,    48.356,    12.895,     0.000,     0.000,     0.000,     0.000,   1,1, 0
  487,'1 ',1,   1,   1,     7.709,     2.056,     0.000,     0.000,     0.000,     0.000,   1,1, 0
  488,'1 ',1,   1,   2,    55.408,    14.775,     0.000,     0.000,     0.000,     0.000,   1,1, 0
  489,'1 ',1,   1,   5,     0.256,     0.068,     0.000,     0.000,     0.000,     0.000,   1,1, 0
  489,'2 ',1,   1,   5,     2.300,     0.613,     0.000,     0.000,     0.000,     0.000,   1,1, 0
  490,'1 ',1,   1,   1,    19.699,     5.253,     0.000,     0.000,     0.000,     0.000,   1,1, 0
  491,'1 ',1,   1,   6,    84.336,    22.489,     0.000,     0.000,     0.000,     0.000,   1,1, 0
...
0 / END OF LOAD DATA, BEGIN FIXED SHUNT DATA
0 / END OF FIXED SHUNT DATA, BEGIN GENERATOR DATA
    9,'1 ',   231.540,    36.670,   359.659,   -94.160,1.04000,    0,   926.160,   0.00000,   0.17160,   0.00000,   0.00000,1.00000,1,  100.0,   771.800,   231.540,   1,1.0000,   0,1.0000,   0,1.0000,   0,1.0000,0, 1.0000
   16,'1 ',   444.450,    -2.693,   163.558,   -36.445,1.04000,    0,   533.340,   0.00000,   0.11320,   0.00000,   0.00000,1.00000,1,  100.0,   444.450,   133.335,   1,1.0000,   0,1.0000,   0,1.0000,   0,1.0000,0, 1.0000
   17,'1 ',   888.897,     3.994,   327.115,   -72.890,1.04000,    0,  1066.680,   0.00000,   0.20480,   0.00000,   0.00000,1.00000,1,  100.0,   888.900,   266.670,   1,1.0000,   0,1.0000,   0,1.0000,   0,1.0000,0, 1.0000
   18,'1 ',   157.600,     1.129,    57.997,   -12.923,1.04000,    0,   189.120,   0.00000,   0.16400,   0.00000,   0.00000,1.00000,1,  100.0,   157.600,    47.280,   1,1.0000,   0,1.0000,   0,1.0000,   0,1.0000,0, 1.0000
   49,'1 ',     1.300,    -0.159,     0.606,    -0.159,1.04000,    0,     1.560,   0.00000,   0.28180,   0.00000,   0.00000,1.00000,1,  100.0,     1.300,     0.390,   1,1.0000,   0,1.0000,   0,1.0000,   0,1.0000,0, 1.0000
   50,'1 ',     2.600,    -0.317,     1.212,    -0.317,1.04000,    0,     3.120,   0.00000,   0.23070,   0.00000,   0.00000,1.00000,1,  100.0,     2.600,     0.780,   1,1.0000,   0,1.0000,   0,1.0000,   0,1.0000,0, 1.0000
   63,'1 ',     0.960,     1.629,     1.629,    -0.355,1.04000,    0,     3.840,   0.00000,   0.17330,   0.00000,   0.00000,1.00000,0,  100.0,     3.200,     0.960,   1,1.0000,   0,1.0000,   0,1.0000,   0,1.0000,0, 1.0000
   71,'1 ',     1.240,     1.324,     1.536,    -0.196,1.04000,    0,     4.800,   0.00000,   0.15360,   0.00000,   0.00000,1.00000,1,  100.0,     0.575,     0.000,   1,1.0000,   0,1.0000,   0,1.0000,   0,1.0000,0, 1.0000
   72,'1 ',     0.636,     0.405,     0.768,    -0.098,1.04000,    0,     2.400,   0.00000,   0.17240,   0.00000,   0.00000,1.00000,1,  100.0,     0.288,     0.000,   1,1.0000,   0,1.0000,   0,1.0000,   0,1.0000,0, 1.0000
   73,'1 ',     0.469,     0.200,     0.538,    -0.069,1.04000,    0,     1.680,   0.00000,   0.13040,   0.00000,   0.00000,1.00000,1,  100.0,     0.201,     0.000,   1,1.0000,   0,1.0000,   0,1.0000,   0,1.0000,0, 1.0000
   82,'1 ',   111.828,   -15.839,   138.970,   -17.733,1.04000,    0,   434.280,   0.00000,   0.13390,   0.00000,   0.00000,1.00000,1,  100.0,    52.039,     0.000,   1,1.0000,   0,1.0000,   0,1.0000,   0,1.0000,0, 1.0000
  125,'1 ',   162.000,    29.173,    62.208,    -7.938,1.04000,    0,   194.400,   0.00000,   0.22480,   0.00000,   0.00000,1.00000,0,  100.0,    23.295,     0.000,   1,1.0000,   0,1.0000,   0,1.0000,   0,1.0000,0, 1.0000
  126,'1 ',   162.000,    48.566,    62.208,    -7.938,1.04000,    0,   194.400,   0.00000,   0.13480,   0.00000,   0.00000,1.00000,0,  100.0,    23.295,     0.000,   1,1.0000,   0,1.0000,   0,1.0000,   0,1.0000,0, 1.0000
  127,'1 ',    50.058,    -3.767,    62.208,    -7.938,1.04000,    0,   194.400,   0.00000,   0.29660,   0.00000,   0.00000,1.00000,1,  100.0,    23.295,     0.000,   1,1.0000,   0,1.0000,   0,1.0000,   0,1.0000,0, 1.0000
  128,'1 ',    50.058,    -7.938,    62.208,    -7.938,1.04000,    0,   194.400,   0.00000,   0.26850,   0.00000,   0.00000,1.00000,1,  100.0,    23.295,     0.000,   1,1.0000,   0,1.0000,   0,1.0000,   0,1.0000,0, 1.0000
  144,'1 ',   602.550,    66.746,   221.738,   -49.409,1.04000,    0,   723.060,   0.00000,   0.17120,   0.00000,   0.00000,1.00000,1,  100.0,   602.550,   180.765,   1,1.0000,   0,1.0000,   0,1.0000,   0,1.0000,0, 1.0000
  145,'1 ',   486.591,    59.102,   221.738,   -49.409,1.04000,    0,   723.060,   0.00000,   0.16670,   0.00000,   0.00000,1.00000,1,  100.0,   602.550,   180.765,   1,1.0000,   0,1.0000,   0,1.0000,   0,1.0000,0, 1.0000
  167,'1 ',    59.792,    -7.449,    74.304,    -9.482,1.04000,    0,   232.200,   0.00000,   0.11760,   0.00000,   0.00000,1.00000,1,  100.0,    27.824,     0.000,   1,1.0000,   0,1.0000,   0,1.0000,   0,1.0000,0, 1.0000
  168,'1 ',    59.792,    -3.867,    74.304,    -9.482,1.04000,    0,   232.200,   0.00000,   0.11880,   0.00000,   0.00000,1.00000,1,  100.0,    27.824,     0.000,   1,1.0000,   0,1.0000,   0,1.0000,   0,1.0000,0, 1.0000
  169,'1 ',   119.584,    -5.446,   148.608,   -18.963,1.04000,    0,   464.400,   0.00000,   0.15850,   0.00000,   0.00000,1.00000,1,  100.0,    55.648,     0.000,   1,1.0000,   0,1.0000,   0,1.0000,   0,1.0000,0, 1.0000
  197,'1 ',   264.785,    20.185,   136.818,   -35.819,1.04000,    0,   352.320,   0.00000,   0.15340,   0.00000,   0.00000,1.00000,1,  100.0,   293.600,    88.080,   1,1.0000,   0,1.0000,   0,1.0000,   0,1.0000,0, 1.0000
  198,'1 ',   207.300,    22.295,    96.602,   -25.291,1.04000,    0,   248.760,   0.00000,   0.14970,   0.00000,   0.00000,1.00000,1,  100.0,   207.300,    62.190,   1,1.0000,   0,1.0000,   0,1.0000,   0,1.0000,0, 1.0000
  222,'1 ',     1.612,    -0.255,     1.997,    -0.255,1.04000,    0,     6.240,   0.00000,   0.10380,   0.00000,   0.00000,1.00000,1,  100.0,     0.748,     0.000,   1,1.0000,   0,1.0000,   0,1.0000,   0,1.0000,0, 1.0000
  223,'1 ',     5.579,    -0.882,     6.912,    -0.882,1.04000,    0,    21.600,   0.00000,   0.14880,   0.00000,   0.00000,1.00000,1,  100.0,     2.588,     0.000,   1,1.0000,   0,1.0000,   0,1.0000,   0,1.0000,0, 1.0000
  224,'1 ',   157.962,    -4.699,   196.301,   -25.049,1.04000,    0,   613.440,   0.00000,   0.25500,   0.00000,   0.00000,1.00000,1,  100.0,    73.508,     0.000,   1,1.0000,   0,1.0000,   0,1.0000,   0,1.0000,0, 1.0000
  225,'1 ',   159.074,    -7.169,   197.683,   -25.225,1.04000,    0,   617.760,   0.00000,   0.13330,   0.00000,   0.00000,1.00000,1,  100.0,    74.025,     0.000,   1,1.0000,   0,1.0000,   0,1.0000,   0,1.0000,0, 1.0000
  231,'1 ',     2.900,    -0.354,     1.351,    -0.354,1.04000,    0,     3.480,   0.00000,   0.14140,   0.00000,   0.00000,1.00000,1,  100.0,     2.900,     0.870,   1,1.0000,   0,1.0000,   0,1.0000,   0,1.0000,0, 1.0000
  248,'1 ',    39.960,     4.115,    67.799,   -14.785,1.04000,    0,   159.840,   0.00000,   0.23130,   0.00000,   0.00000,1.00000,0,  100.0,   133.200,    39.960,   1,1.0000,   0,1.0000,   0,1.0000,   0,1.0000,0, 1.0000
  249,'1 ',    39.960,     4.071,    67.799,   -14.785,1.04000,    0,   159.840,   0.00000,   0.17560,   0.00000,   0.00000,1.00000,0,  100.0,   133.200,    39.960,   1,1.0000,   0,1.0000,   0,1.0000,   0,1.0000,0, 1.0000
  250,'1 ',   159.840,    23.265,   271.195,   -59.141,1.04000,    0,   639.360,   0.00000,   0.26890,   0.00000,   0.00000,1.00000,0,  100.0,   532.800,   159.840,   1,1.0000,   0,1.0000,   0,1.0000,   0,1.0000,0, 1.0000
  254,'1 ',     4.100,     1.911,     1.911,    -0.500,1.04000,    0,     4.920,   0.00000,   0.11700,   0.00000,   0.00000,1.00000,0,  100.0,     4.100,     1.230,   1,1.0000,   0,1.0000,   0,1.0000,   0,1.0000,0, 1.0000
  255,'1 ',     3.300,     1.538,     1.538,    -0.403,1.04000,    0,     3.960,   0.00000,   0.11160,   0.00000,   0.00000,1.00000,0,  100.0,     3.300,     0.990,   1,1.0000,   0,1.0000,   0,1.0000,   0,1.0000,0, 1.0000
  256,'1 ',     2.900,     1.351,     1.351,    -0.354,1.04000,    0,     3.480,   0.00000,   0.09920,   0.00000,   0.00000,1.00000,0,  100.0,     2.900,     0.870,   1,1.0000,   0,1.0000,   0,1.0000,   0,1.0000,0, 1.0000
  257,'1 ',     5.400,     2.516,     2.516,    -0.659,1.04000,    0,     6.480,   0.00000,   0.26600,   0.00000,   0.00000,1.00000,0,  100.0,     5.400,     1.620,   1,1.0000,   0,1.0000,   0,1.0000,   0,1.0000,0, 1.0000
  258,'1 ',     1.100,    -0.134,     0.513,    -0.134,1.04000,    0,     1.320,   0.00000,   0.20360,   0.00000,   0.00000,1.00000,1,  100.0,     1.100,     0.330,   1,1.0000,   0,1.0000,   0,1.0000,   0,1.0000,0, 1.0000
  264,'1 ',    11.760,    19.953,    19.953,    -4.351,1.04000,    0,    47.040,   0.00000,   0.18890,   0.00000,   0.00000,1.00000,0,  100.0,    39.200,    11.760,   1,1.0000,   0,1.0000,   0,1.0000,   0,1.0000,0, 1.0000
  265,'1 ',     3.180,     5.395,     5.395,    -1.177,1.04000,    0,    12.720,   0.00000,   0.26540,   0.00000,   0.00000,1.00000,0,  100.0,    10.600,     3.180,   1,1.0000,   0,1.0000,   0,1.0000,   0,1.0000,0, 1.0000
  275,'1 ',    30.360,    34.938,    51.511,   -11.233,1.04000,    0,   121.440,   0.00000,   0.12080,   0.00000,   0.00000,1.00000,0,  100.0,   101.200,    30.360,   1,1.0000,   0,1.0000,   0,1.0000,   0,1.0000,0, 1.0000
  301,'1 ',     2.900,     1.351,     1.351,    -0.354,1.04000,    0,     3.480,   0.00000,   0.21590,   0.00000,   0.00000,1.00000,1,  100.0,     2.900,     0.870,   1,1.0000,   0,1.0000,   0,1.0000,   0,1.0000,0, 1.0000
  302,'1 ',     2.900,     1.351,     1.351,    -0.354,1.04000,    0,     3.480,   0.00000,   0.25620,   0.00000,   0.00000,1.00000,1,  100.0,     2.900,     0.870,   1,1.0000,   0,1.0000,   0,1.0000,   0,1.0000,0, 1.0000
  305,'1 ',     0.339,    -0.049,     0.384,    -0.049,1.04000,    0,     1.200,   0.00000,   0.20580,   0.00000,   0.00000,1.00000,1,  100.0,     0.144,     0.000,   1,1.0000,   0,1.0000,   0,1.0000,   0,1.0000,0, 1.0000
  306,'1 ',     0.764,    -0.118,     0.922,    -0.118,1.04000,    0,     2.880,   0.00000,   0.10650,   0.00000,   0.00000,1.00000,1,  100.0,     0.345,     0.000,   1,1.0000,   0,1.0000,   0,1.0000,   0,1.0000,0, 1.0000
  319,'1 ',    13.110,    14.678,    16.243,    -2.073,1.04000,    0,    50.760,   0.00000,   0.11650,   0.00000,   0.00000,1.00000,1,  100.0,     6.083,     0.000,   1,1.0000,   0,1.0000,   0,1.0000,   0,1.0000,0, 1.0000
  350,'1 ',     4.649,     5.205,     5.760,    -0.735,1.04000,    0,    18.000,   0.00000,   0.15330,   0.00000,   0.00000,1.00000,1,  100.0,     2.157,     0.000,   1,1.0000,   0,1.0000,   0,1.0000,   0,1.0000,0, 1.0000
  351,'1 ',     1.922,     2.381,     2.381,    -0.304,1.04000,    0,     7.440,   0.00000,   0.18030,   0.00000,   0.00000,1.00000,1,  100.0,     0.892,     0.000,   1,1.0000,   0,1.0000,   0,1.0000,   0,1.0000,0, 1.0000
  352,'1 ',     4.463,     5.153,     5.530,    -0.706,1.04000,    0,    17.280,   0.00000,   0.14690,   0.00000,   0.00000,1.00000,1,  100.0,     2.071,     0.000,   1,1.0000,   0,1.0000,   0,1.0000,   0,1.0000,0, 1.0000
  353,'1 ',    22.866,     4.647,    28.416,    -3.626,1.04000,    0,    88.800,   0.00000,   0.23100,   0.00000,   0.00000,1.00000,1,  100.0,    10.641,     0.000,   1,1.0000,   0,1.0000,   0,1.0000,   0,1.0000,0, 1.0000
  361,'1 ',     0.480,     0.814,     0.814,    -0.178,1.04000,    0,     1.920,   0.00000,   0.15630,   0.00000,   0.00000,1.00000,0,  100.0,     1.600,     0.480,   1,1.0000,   0,1.0000,   0,1.0000,   0,1.0000,0, 1.0000
  362,'1 ',     3.300,     5.599,     5.599,    -1.221,1.04000,    0,    13.200,   0.00000,   0.11760,   0.00000,   0.00000,1.00000,0,  100.0,    11.000,     3.300,   1,1.0000,   0,1.0000,   0,1.0000,   0,1.0000,0, 1.0000
  363,'1 ',     0.960,     1.629,     1.629,    -0.355,1.04000,    0,     3.840,   0.00000,   0.16990,   0.00000,   0.00000,1.00000,0,  100.0,     3.200,     0.960,   1,1.0000,   0,1.0000,   0,1.0000,   0,1.0000,0, 1.0000
  388,'1 ',     3.000,     5.090,     5.090,    -1.110,1.04000,    0,    12.000,   0.00000,   0.15070,   0.00000,   0.00000,1.00000,0,  100.0,    10.000,     3.000,   1,1.0000,   0,1.0000,   0,1.0000,   0,1.0000,0, 1.0000
  389,'1 ',    52.000,    -1.467,    88.227,   -19.240,1.04000,    0,   208.000,   0.00000,   0.10290,   0.00000,   0.00000,1.00000,1,  100.0,   173.333,    52.000,   1,1.0000,   0,1.0000,   0,1.0000,   0,1.0000,0, 1.0000
  390,'1 ',    52.000,    -1.748,    88.227,   -19.240,1.04000,    0,   208.000,   0.00000,   0.23500,   0.00000,   0.00000,1.00000,1,  100.0,   173.333,    52.000,   1,1.0000,   0,1.0000,   0,1.0000,   0,1.0000,0, 1.0000
  391,'1 ',    52.000,    -2.061,    88.227,   -19.240,1.04000,    0,   208.000,   0.00000,   0.29800,   0.00000,   0.00000,1.00000,1,  100.0,   173.333,    52.000,   1,1.0000,   0,1.0000,   0,1.0000,   0,1.0000,0, 1.0000
  392,'1 ',    34.920,    19.534,    59.248,   -12.920,1.04000,    0,   139.680,   0.00000,   0.10760,   0.00000,   0.00000,1.00000,0,  100.0,   116.400,    34.920,   1,1.0000,   0,1.0000,   0,1.0000,   0,1.0000,0, 1.0000
  393,'1 ',    34.920,    19.300,    59.248,   -12.920,1.04000,    0,   139.680,   0.00000,   0.21060,   0.00000,   0.00000,1.00000,0,  100.0,   116.400,    34.920,   1,1.0000,   0,1.0000,   0,1.0000,   0,1.0000,0, 1.0000
  394,'1 ',    34.920,    28.977,    59.248,   -12.920,1.04000,    0,   139.680,   0.00000,   0.11110,   0.00000,   0.00000,1.00000,0,  100.0,   116.400,    34.920,   1,1.0000,   0,1.0000,   0,1.0000,   0,1.0000,0, 1.0000
  395,'1 ',    34.920,    -1.148,    59.248,   -12.920,1.04000,    0,   139.680,   0.00000,   0.13710,   0.00000,   0.00000,1.00000,1,  100.0,   116.400,    34.920,   1,1.0000,   0,1.0000,   0,1.0000,   0,1.0000,0, 1.0000
  396,'1 ',    34.920,    29.790,    59.248,   -12.920,1.04000,    0,   139.680,   0.00000,   0.15610,   0.00000,   0.00000,1.00000,0,  100.0,   116.400,    34.920,   1,1.0000,   0,1.0000,   0,1.0000,   0,1.0000,0, 1.0000
  409,'1 ',    30.000,    17.565,    50.900,   -11.100,1.04000,    0,   120.000,   0.00000,   0.10330,   0.00000,   0.00000,1.00000,0,  100.0,   100.000,    30.000,   1,1.0000,   0,1.0000,   0,1.0000,   0,1.0000,0, 1.0000
  410,'1 ',    41.085,    -7.540,    69.708,   -15.201,1.04000,    0,   164.340,   0.00000,   0.11680,   0.00000,   0.00000,1.00000,1,  100.0,   136.950,    41.085,   1,1.0000,   0,1.0000,   0,1.0000,   0,1.0000,0, 1.0000
  411,'1 ',    41.085,   -13.681,    69.708,   -15.201,1.04000,    0,   164.340,   0.00000,   0.21310,   0.00000,   0.00000,1.00000,1,  100.0,   136.950,    41.085,   1,1.0000,   0,1.0000,   0,1.0000,   0,1.0000,0, 1.0000
  412,'1 ',    41.085,   -11.944,    69.708,   -15.201,1.04000,    0,   164.340,   0.00000,   0.19290,   0.00000,   0.00000,1.00000,1,  100.0,   136.950,    41.085,   1,1.0000,   0,1.0000,   0,1.0000,   0,1.0000,0, 1.0000
  413,'1 ',    41.085,    -8.161,    69.708,   -15.201,1.04000,    0,   164.340,   0.00000,   0.23980,   0.00000,   0.00000,1.00000,1,  100.0,   136.950,    41.085,   1,1.0000,   0,1.0000,   0,1.0000,   0,1.0000,0, 1.0000
  414,'1 ',    33.330,    23.748,    56.550,   -12.332,1.04000,    0,   133.320,   0.00000,   0.18880,   0.00000,   0.00000,1.00000,0,  100.0,   111.100,    33.330,   1,1.0000,   0,1.0000,   0,1.0000,   0,1.0000,0, 1.0000
  430,'1 ',     0.339,     0.195,     0.384,    -0.049,1.04000,    0,     1.200,   0.00000,   0.15220,   0.00000,   0.00000,1.00000,1,  100.0,     0.144,     0.000,   1,1.0000,   0,1.0000,   0,1.0000,   0,1.0000,0, 1.0000
  431,'1 ',     0.990,     0.341,     1.267,    -0.162,1.04000,    0,     3.960,   0.00000,   0.13150,   0.00000,   0.00000,1.00000,1,  100.0,     0.475,     0.000,   1,1.0000,   0,1.0000,   0,1.0000,   0,1.0000,0, 1.0000
  432,'1 ',     0.407,     0.400,     0.461,    -0.059,1.04000,    0,     1.440,   0.00000,   0.12980,   0.00000,   0.00000,1.00000,1,  100.0,     0.173,     0.000,   1,1.0000,   0,1.0000,   0,1.0000,   0,1.0000,0, 1.0000
  433,'1 ',     2.077,     0.124,     2.573,    -0.328,1.04000,    0,     8.040,   0.00000,   0.33480,   0.00000,   0.00000,1.00000,1,  100.0,     0.963,     0.000,   1,1.0000,   0,1.0000,   0,1.0000,   0,1.0000,0, 1.0000
  434,'1 ',     1.333,     0.547,     1.651,    -0.211,1.04000,    0,     5.160,   0.00000,   0.14120,   0.00000,   0.00000,1.00000,1,  100.0,     0.618,     0.000,   1,1.0000,   0,1.0000,   0,1.0000,   0,1.0000,0, 1.0000
  435,'1 ',   197.000,    30.332,    75.648,    -9.653,1.04000,    0,   236.400,   0.00000,   0.22990,   0.00000,   0.00000,1.00000,0,  100.0,    28.327,     0.000,   1,1.0000,   0,1.0000,   0,1.0000,   0,1.0000,0, 1.0000
  436,'1 ',   197.000,    53.369,    75.648,    -9.653,1.04000,    0,   236.400,   0.00000,   0.17570,   0.00000,   0.00000,1.00000,0,  100.0,    28.327,     0.000,   1,1.0000,   0,1.0000,   0,1.0000,   0,1.0000,0, 1.0000
  437,'1 ',    60.873,     0.547,    75.648,    -9.653,1.04000,    0,   236.400,   0.00000,   0.32640,   0.00000,   0.00000,1.00000,1,  100.0,    28.327,     0.000,   1,1.0000,   0,1.0000,   0,1.0000,   0,1.0000,0, 1.0000
  438,'1 ',    60.873,    -0.426,    75.648,    -9.653,1.04000,    0,   236.400,   0.00000,   0.27400,   0.00000,   0.00000,1.00000,1,  100.0,    28.327,     0.000,   1,1.0000,   0,1.0000,   0,1.0000,   0,1.0000,0, 1.0000
  439,'1 ',    60.873,     0.626,    75.648,    -9.653,1.04000,    0,   236.400,   0.00000,   0.14700,   0.00000,   0.00000,1.00000,1,  100.0,    28.327,     0.000,   1,1.0000,   0,1.0000,   0,1.0000,   0,1.0000,0, 1.0000
  442,'1 ',    32.400,    54.972,    54.972,   -11.988,1.04000,    0,   129.600,   0.00000,   0.26450,   0.00000,   0.00000,1.00000,0,  100.0,   108.000,    32.400,   1,1.0000,   0,1.0000,   0,1.0000,   0,1.0000,0, 1.0000
  443,'1 ',    52.500,    71.049,    89.075,   -19.425,1.04000,    0,   210.000,   0.00000,   0.24790,   0.00000,   0.00000,1.00000,0,  100.0,   175.000,    52.500,   1,1.0000,   0,1.0000,   0,1.0000,   0,1.0000,0, 1.0000
  444,'1 ',     0.990,     1.680,     1.680,    -0.366,1.04000,    0,     3.960,   0.00000,   0.17190,   0.00000,   0.00000,1.00000,0,  100.0,     3.300,     0.990,   1,1.0000,   0,1.0000,   0,1.0000,   0,1.0000,0, 1.0000
  455,'1 ',    66.850,    26.345,   113.422,   -24.735,1.04000,    0,   267.400,   0.00000,   0.24990,   0.00000,   0.00000,1.00000,1,  100.0,   222.833,    66.850,   1,1.0000,   0,1.0000,   0,1.0000,   0,1.0000,0, 1.0000
  456,'1 ',   133.700,    26.422,   226.844,   -49.469,1.04000,    0,   534.800,   0.00000,   0.29070,   0.00000,   0.00000,1.00000,1,  100.0,   445.667,   133.700,   1,1.0000,   0,1.0000,   0,1.0000,   0,1.0000,0, 1.0000
  458,'1 ',   109.600,     0.000,     0.000,     0.000,1.04000,    0,   131.520,   0.00000,   0.19880,   0.00000,   0.00000,1.00000,1,  100.0,   109.600,    32.880,   1,1.0000,   0,1.0000,   0,1.0000,   0,1.0000,0, 1.0000
  463,'1 ',     7.200,     3.355,     3.355,    -0.878,1.04000,    0,     8.640,   0.00000,   0.23480,   0.00000,   0.00000,1.00000,0,  100.0,     7.200,     2.160,   1,1.0000,   0,1.0000,   0,1.0000,   0,1.0000,0, 1.0000
...